16

Ni         1.55252       -0.88078        0.43158
Ni        -0.73510       -1.60809        0.50197
Ni        -0.03383        0.27739        1.81236
C          3.22106       -1.18646       -0.02680
C          0.80742       -2.54989       -0.08474
C         -1.94529       -2.82896        0.13947
C         -1.58316       -0.80472        1.99956
C         -0.35901        1.43477        3.09399
C          1.86397        0.28917        1.89528
O          4.31041       -1.40128       -0.30873
O          1.13117       -3.60370       -0.46977
O         -2.72787       -3.63736       -0.07612
O         -2.50452       -0.95032        2.70207
O         -0.56470        2.17398        3.94458
O          2.73763        0.71295        2.54384
Zn         4.20675        1.83068        3.45502
